CD Set 1, Host: alpha-cyclodextrin
  -OEChem-06041909083D

126132  0     1  0  0  0  0  0999 V2000
   16.1225   15.1500   21.1392 C   0  0  2  0  0  0  0  0  0  0  0  0
   15.0465   14.9660   20.9552 H   0  0  0  0  0  0  0  0  0  0  0  0
   16.3705   16.5410   21.5362 O   0  0  0  0  0  0  0  0  0  0  0  0
   16.5825   14.2430   22.2762 C   0  0  2  0  0  0  0  0  0  0  0  0
   16.3835   13.1970   22.0232 H   0  0  0  0  0  0  0  0  0  0  0  0
   15.8755   14.5980   23.4762 O   0  0  0  0  0  0  0  0  0  0  0  0
   15.5195   15.4950   23.3892 H   0  0  0  0  0  0  0  0  0  0  0  0
   18.0565   14.4480   22.5532 C   0  0  1  0  0  0  0  0  0  0  0  0
   18.2155   15.4640   22.9252 H   0  0  0  0  0  0  0  0  0  0  0  0
   18.4315   13.4850   23.5512 O   0  0  0  0  0  0  0  0  0  0  0  0
   17.6855   13.4180   24.1632 H   0  0  0  0  0  0  0  0  0  0  0  0
   18.8885   14.2240   21.2982 C   0  0  1  0  0  0  0  0  0  0  0  0
   18.8755   13.1610   21.0442 H   0  0  0  0  0  0  0  0  0  0  0  0
   18.3685   15.0590   20.1132 C   0  0  2  0  0  0  0  0  0  0  0  0
   18.5045   16.1120   20.3702 H   0  0  0  0  0  0  0  0  0  0  0  0
   16.9105   14.8180   19.9382 O   0  0  0  0  0  0  0  0  0  0  0  0
   19.0645   14.8630   18.7582 C   0  0  0  0  0  0  0  0  0  0  0  0
   19.8745   15.5880   18.6532 H   0  0  0  0  0  0  0  0  0  0  0  0
   18.3545   15.0290   17.9442 H   0  0  0  0  0  0  0  0  0  0  0  0
   19.6145   13.5440   18.6532 O   0  0  0  0  0  0  0  0  0  0  0  0
   20.5175   13.5690   18.9962 H   0  0  0  0  0  0  0  0  0  0  0  0
   14.7065   20.3340   21.1422 C   0  0  2  0  0  0  0  0  0  0  0  0
   14.0105   21.1810   20.9812 H   0  0  0  0  0  0  0  0  0  0  0  0
   16.0315   20.8040   21.5672 O   0  0  0  0  0  0  0  0  0  0  0  0
   14.1405   19.4450   22.2442 C   0  0  2  0  0  0  0  0  0  0  0  0
   13.1385   19.1030   21.9702 H   0  0  0  0  0  0  0  0  0  0  0  0
   14.0845   20.1920   23.4702 O   0  0  0  0  0  0  0  0  0  0  0  0
   14.6835   20.9530   23.4152 H   0  0  0  0  0  0  0  0  0  0  0  0
   15.0545   18.2620   22.4882 C   0  0  1  0  0  0  0  0  0  0  0  0
   16.0105   18.6190   22.8802 H   0  0  0  0  0  0  0  0  0  0  0  0
   14.4005   17.4200   23.4522 O   0  0  0  0  0  0  0  0  0  0  0  0
   13.9635   18.0120   24.0812 H   0  0  0  0  0  0  0  0  0  0  0  0
   15.2875   17.4730   21.2072 C   0  0  1  0  0  0  0  0  0  0  0  0
   14.3635   16.9620   20.9272 H   0  0  0  0  0  0  0  0  0  0  0  0
   15.7605   18.3820   20.0562 C   0  0  2  0  0  0  0  0  0  0  0  0
   16.7375   18.7820   20.3362 H   0  0  0  0  0  0  0  0  0  0  0  0
   14.8235   19.5290   19.9132 O   0  0  0  0  0  0  0  0  0  0  0  0
   15.9505   17.7290   18.6802 C   0  0  0  0  0  0  0  0  0  0  0  0
   16.9835   17.3930   18.5712 H   0  0  0  0  0  0  0  0  0  0  0  0
   15.7455   18.4540   17.8882 H   0  0  0  0  0  0  0  0  0  0  0  0
   15.0845   16.5970   18.5282 O   0  0  0  0  0  0  0  0  0  0  0  0
   15.5545   15.8150   18.8492 H   0  0  0  0  0  0  0  0  0  0  0  0
   18.4855   24.1540   21.3102 C   0  0  2  0  0  0  0  0  0  0  0  0
   18.8705   25.1840   21.1882 H   0  0  0  0  0  0  0  0  0  0  0  0
   19.5505   23.2270   21.7122 O   0  0  0  0  0  0  0  0  0  0  0  0
   17.4225   24.1600   22.4032 C   0  0  2  0  0  0  0  0  0  0  0  0
   16.6265   24.8640   22.1472 H   0  0  0  0  0  0  0  0  0  0  0  0
   18.0295   24.5400   23.6492 O   0  0  0  0  0  0  0  0  0  0  0  0
   18.9885   24.4040   23.5972 H   0  0  0  0  0  0  0  0  0  0  0  0
   16.8535   22.7690   22.5942 C   0  0  1  0  0  0  0  0  0  0  0  0
   17.6375   22.1070   22.9712 H   0  0  0  0  0  0  0  0  0  0  0  0
   15.7895   22.8810   23.5542 O   0  0  0  0  0  0  0  0  0  0  0  0
   16.0775   23.5330   24.2082 H   0  0  0  0  0  0  0  0  0  0  0  0
   16.2995   22.2170   21.2892 C   0  0  1  0  0  0  0  0  0  0  0  0
   15.3965   22.7710   21.0192 H   0  0  0  0  0  0  0  0  0  0  0  0
   17.3325   22.3030   20.1492 C   0  0  2  0  0  0  0  0  0  0  0  0
   18.1645   21.6470   20.4142 H   0  0  0  0  0  0  0  0  0  0  0  0
   17.8575   23.6910   20.0582 O   0  0  0  0  0  0  0  0  0  0  0  0
   16.8745   21.8590   18.7532 C   0  0  0  0  0  0  0  0  0  0  0  0
   17.1025   20.8010   18.6092 H   0  0  0  0  0  0  0  0  0  0  0  0
   17.4055   22.4260   17.9852 H   0  0  0  0  0  0  0  0  0  0  0  0
   15.4615   22.0470   18.5942 O   0  0  0  0  0  0  0  0  0  0  0  0
   15.0195   21.2390   18.8842 H   0  0  0  0  0  0  0  0  0  0  0  0
   23.6815   22.7880   21.4762 C   0  0  2  0  0  0  0  0  0  0  0  0
   24.7685   22.9740   21.3702 H   0  0  0  0  0  0  0  0  0  0  0  0
   23.4085   21.3880   21.8262 O   0  0  0  0  0  0  0  0  0  0  0  0
   23.1455   23.6730   22.5962 C   0  0  2  0  0  0  0  0  0  0  0  0
   23.3595   24.7230   22.3782 H   0  0  0  0  0  0  0  0  0  0  0  0
   23.7675   23.2940   23.8342 O   0  0  0  0  0  0  0  0  0  0  0  0
   24.1295   22.3980   23.7552 H   0  0  0  0  0  0  0  0  0  0  0  0
   21.6545   23.4630   22.7672 C   0  0  1  0  0  0  0  0  0  0  0  0
   21.4715   22.4390   23.1072 H   0  0  0  0  0  0  0  0  0  0  0  0
   21.2115   24.4050   23.7562 O   0  0  0  0  0  0  0  0  0  0  0  0
   21.9135   24.4600   24.4192 H   0  0  0  0  0  0  0  0  0  0  0  0
   20.9115   23.7120   21.4632 C   0  0  1  0  0  0  0  0  0  0  0  0
   20.9405   24.7790   21.2312 H   0  0  0  0  0  0  0  0  0  0  0  0
   21.5115   22.9000   20.3002 C   0  0  2  0  0  0  0  0  0  0  0  0
   21.3595   21.8430   20.5262 H   0  0  0  0  0  0  0  0  0  0  0  0
   22.9775   23.1430   20.2302 O   0  0  0  0  0  0  0  0  0  0  0  0
   20.9115   23.1240   18.9052 C   0  0  0  0  0  0  0  0  0  0  0  0
   20.1095   22.4030   18.7282 H   0  0  0  0  0  0  0  0  0  0  0  0
   21.6745   22.9740   18.1382 H   0  0  0  0  0  0  0  0  0  0  0  0
   20.3685   24.4450   18.7872 O   0  0  0  0  0  0  0  0  0  0  0  0
   19.4435   24.4140   19.0682 H   0  0  0  0  0  0  0  0  0  0  0  0
   25.0985   17.6030   21.4722 C   0  0  2  0  0  0  0  0  0  0  0  0
   25.8035   16.7590   21.3422 H   0  0  0  0  0  0  0  0  0  0  0  0
   23.7465   17.1270   21.7952 O   0  0  0  0  0  0  0  0  0  0  0  0
   25.5865   18.4690   22.6282 C   0  0  2  0  0  0  0  0  0  0  0  0
   26.6045   18.8170   22.4302 H   0  0  0  0  0  0  0  0  0  0  0  0
   25.5585   17.6980   23.8402 O   0  0  0  0  0  0  0  0  0  0  0  0
   24.9655   16.9400   23.7282 H   0  0  0  0  0  0  0  0  0  0  0  0
   24.6575   19.6490   22.8322 C   0  0  1  0  0  0  0  0  0  0  0  0
   23.6765   19.2840   23.1512 H   0  0  0  0  0  0  0  0  0  0  0  0
   25.2435   20.4690   23.8562 O   0  0  0  0  0  0  0  0  0  0  0  0
   25.6355   19.8660   24.5012 H   0  0  0  0  0  0  0  0  0  0  0  0
   24.5125   20.4630   21.5542 C   0  0  1  0  0  0  0  0  0  0  0  0
   25.4525   20.9790   21.3492 H   0  0  0  0  0  0  0  0  0  0  0  0
   24.1195   19.5780   20.3562 C   0  0  2  0  0  0  0  0  0  0  0  0
   23.1265   19.1730   20.5602 H   0  0  0  0  0  0  0  0  0  0  0  0
   25.0645   18.4340   20.2542 O   0  0  0  0  0  0  0  0  0  0  0  0
   24.0255   20.2580   18.9832 C   0  0  0  0  0  0  0  0  0  0  0  0
   23.0005   20.5960   18.8102 H   0  0  0  0  0  0  0  0  0  0  0  0
   24.2835   19.5500   18.1932 H   0  0  0  0  0  0  0  0  0  0  0  0
   24.8975   21.3930   18.9132 O   0  0  0  0  0  0  0  0  0  0  0  0
   24.4065   22.1670   19.2172 H   0  0  0  0  0  0  0  0  0  0  0  0
   21.3185   13.7840   21.3042 C   0  0  2  0  0  0  0  0  0  0  0  0
   20.9435   12.7550   21.1342 H   0  0  0  0  0  0  0  0  0  0  0  0
   20.2285   14.7030   21.6502 O   0  0  0  0  0  0  0  0  0  0  0  0
   22.3045   13.7550   22.4672 C   0  0  2  0  0  0  0  0  0  0  0  0
   23.1165   13.0550   22.2522 H   0  0  0  0  0  0  0  0  0  0  0  0
   21.6125   13.3510   23.6602 O   0  0  0  0  0  0  0  0  0  0  0  0
   20.6605   13.4880   23.5452 H   0  0  0  0  0  0  0  0  0  0  0  0
   22.8585   15.1410   22.7252 C   0  0  1  0  0  0  0  0  0  0  0  0
   22.0485   15.7960   23.0602 H   0  0  0  0  0  0  0  0  0  0  0  0
   23.8535   15.0090   23.7522 O   0  0  0  0  0  0  0  0  0  0  0  0
   23.5215   14.3450   24.3722 H   0  0  0  0  0  0  0  0  0  0  0  0
   23.4995   15.7190   21.4712 C   0  0  1  0  0  0  0  0  0  0  0  0
   24.4205   15.1690   21.2542 H   0  0  0  0  0  0  0  0  0  0  0  0
   22.5485   15.6570   20.2632 C   0  0  2  0  0  0  0  0  0  0  0  0
   21.6985   16.3070   20.4822 H   0  0  0  0  0  0  0  0  0  0  0  0
   22.0315   14.2710   20.1082 O   0  0  0  0  0  0  0  0  0  0  0  0
   23.1005   16.1280   18.9102 C   0  0  0  0  0  0  0  0  0  0  0  0
   22.8815   17.1900   18.7722 H   0  0  0  0  0  0  0  0  0  0  0  0
   22.6235   15.5770   18.0962 H   0  0  0  0  0  0  0  0  0  0  0  0
   24.5205   15.9420   18.8452 O   0  0  0  0  0  0  0  0  0  0  0  0
   24.9425   16.7440   19.1812 H   0  0  0  0  0  0  0  0  0  0  0  0
 17 20  1  0  0  0  0
 14 16  1  0  0  0  0
 14 17  1  0  0  0  0
 12 14  1  0  0  0  0
 12108  1  0  0  0  0
  8 10  1  0  0  0  0
  8 12  1  0  0  0  0
  4  6  1  0  0  0  0
  4  8  1  0  0  0  0
  3 33  1  0  0  0  0
  1  3  1  0  0  0  0
  1  4  1  0  0  0  0
  1 16  1  0  0  0  0
 38 41  1  0  0  0  0
 35 37  1  0  0  0  0
 35 38  1  0  0  0  0
 33 35  1  0  0  0  0
 29 31  1  0  0  0  0
 29 33  1  0  0  0  0
 25 27  1  0  0  0  0
 25 29  1  0  0  0  0
 24 54  1  0  0  0  0
 22 24  1  0  0  0  0
 22 25  1  0  0  0  0
 22 37  1  0  0  0  0
 59 62  1  0  0  0  0
 56 58  1  0  0  0  0
 56 59  1  0  0  0  0
 54 56  1  0  0  0  0
 50 52  1  0  0  0  0
 50 54  1  0  0  0  0
 46 48  1  0  0  0  0
 46 50  1  0  0  0  0
 45 75  1  0  0  0  0
 43 45  1  0  0  0  0
 43 46  1  0  0  0  0
 43 58  1  0  0  0  0
 80 83  1  0  0  0  0
 77 79  1  0  0  0  0
 77 80  1  0  0  0  0
 75 77  1  0  0  0  0
 71 73  1  0  0  0  0
 71 75  1  0  0  0  0
 67 69  1  0  0  0  0
 67 71  1  0  0  0  0
 66 96  1  0  0  0  0
 64 66  1  0  0  0  0
 64 67  1  0  0  0  0
 64 79  1  0  0  0  0
101104  1  0  0  0  0
 98100  1  0  0  0  0
 98101  1  0  0  0  0
 96 98  1  0  0  0  0
 92 94  1  0  0  0  0
 92 96  1  0  0  0  0
 88 90  1  0  0  0  0
 88 92  1  0  0  0  0
 87117  1  0  0  0  0
 85 87  1  0  0  0  0
 85 88  1  0  0  0  0
 85100  1  0  0  0  0
122125  1  0  0  0  0
119121  1  0  0  0  0
119122  1  0  0  0  0
117119  1  0  0  0  0
113115  1  0  0  0  0
113117  1  0  0  0  0
109111  1  0  0  0  0
109113  1  0  0  0  0
106108  1  0  0  0  0
106109  1  0  0  0  0
106121  1  0  0  0  0
 20 21  1  0  0  0  0
 17 18  1  0  0  0  0
 17 19  1  0  0  0  0
 14 15  1  0  0  0  0
 12 13  1  0  0  0  0
 10 11  1  0  0  0  0
  8  9  1  0  0  0  0
  6  7  1  0  0  0  0
  4  5  1  0  0  0  0
  1  2  1  0  0  0  0
 41 42  1  0  0  0  0
 38 39  1  0  0  0  0
 38 40  1  0  0  0  0
 35 36  1  0  0  0  0
 33 34  1  0  0  0  0
 31 32  1  0  0  0  0
 29 30  1  0  0  0  0
 27 28  1  0  0  0  0
 25 26  1  0  0  0  0
 22 23  1  0  0  0  0
 62 63  1  0  0  0  0
 59 60  1  0  0  0  0
 59 61  1  0  0  0  0
 56 57  1  0  0  0  0
 54 55  1  0  0  0  0
 52 53  1  0  0  0  0
 50 51  1  0  0  0  0
 48 49  1  0  0  0  0
 46 47  1  0  0  0  0
 43 44  1  0  0  0  0
 83 84  1  0  0  0  0
 80 81  1  0  0  0  0
 80 82  1  0  0  0  0
 77 78  1  0  0  0  0
 75 76  1  0  0  0  0
 73 74  1  0  0  0  0
 71 72  1  0  0  0  0
 69 70  1  0  0  0  0
 67 68  1  0  0  0  0
 64 65  1  0  0  0  0
104105  1  0  0  0  0
101102  1  0  0  0  0
101103  1  0  0  0  0
 98 99  1  0  0  0  0
 96 97  1  0  0  0  0
 94 95  1  0  0  0  0
 92 93  1  0  0  0  0
 90 91  1  0  0  0  0
 88 89  1  0  0  0  0
 85 86  1  0  0  0  0
125126  1  0  0  0  0
122123  1  0  0  0  0
122124  1  0  0  0  0
119120  1  0  0  0  0
117118  1  0  0  0  0
115116  1  0  0  0  0
113114  1  0  0  0  0
111112  1  0  0  0  0
109110  1  0  0  0  0
106107  1  0  0  0  0
M  END
$$$$
