MOL
 OpenBabel10281611483D

 35 37  0  0  1  0  0  0  0  0999 V2000
    2.8580   -0.0510   -0.7290 N   0  0  0  0  0  0  0  0  0  0  0  0
   -0.7420    1.2970   -0.2540 C   0  0  2  0  0  0  0  0  0  0  0  0
   -0.7880   -1.2700   -0.2540 C   0  0  1  0  0  0  0  0  0  0  0  0
    1.3930   -0.0240   -0.2170 C   0  0  1  0  0  0  0  0  0  0  0  0
   -0.0370    0.0000    1.8130 C   0  0  1  0  0  0  0  0  0  0  0  0
   -1.4620    0.0260   -0.7640 C   0  0  0  0  0  0  0  0  0  0  0  0
    0.7310    1.2510   -0.7500 C   0  0  0  0  0  0  0  0  0  0  0  0
    0.6850   -1.2750   -0.7500 C   0  0  0  0  0  0  0  0  0  0  0  0
   -0.7290    1.2750    1.2930 C   0  0  0  0  0  0  0  0  0  0  0  0
   -0.7750   -1.2480    1.2930 C   0  0  0  0  0  0  0  0  0  0  0  0
    1.4280   -0.0250    1.3150 C   0  0  0  0  0  0  0  0  0  0  0  0
   -1.4240    2.5640   -0.7830 C   0  0  0  0  0  0  0  0  0  0  0  0
   -1.5150   -2.5120   -0.7830 C   0  0  0  0  0  0  0  0  0  0  0  0
    3.3810    0.7710   -0.4000 H   0  0  0  0  0  0  0  0  0  0  0  0
    2.8910   -0.0520   -1.7570 H   0  0  0  0  0  0  0  0  0  0  0  0
    3.3520   -0.8890   -0.3990 H   0  0  0  0  0  0  0  0  0  0  0  0
   -0.0280    0.0000    2.9090 H   0  0  0  0  0  0  0  0  0  0  0  0
   -2.5070    0.0440   -0.4290 H   0  0  0  0  0  0  0  0  0  0  0  0
   -1.4890    0.0260   -1.8630 H   0  0  0  0  0  0  0  0  0  0  0  0
    0.7530    1.2650   -1.8490 H   0  0  0  0  0  0  0  0  0  0  0  0
    1.2700    2.1400   -0.3940 H   0  0  0  0  0  0  0  0  0  0  0  0
    1.1930   -2.1840   -0.3950 H   0  0  0  0  0  0  0  0  0  0  0  0
    0.7060   -1.2890   -1.8490 H   0  0  0  0  0  0  0  0  0  0  0  0
   -1.7600    1.3140    1.6650 H   0  0  0  0  0  0  0  0  0  0  0  0
   -0.2220    2.1710    1.6770 H   0  0  0  0  0  0  0  0  0  0  0  0
   -0.3000   -2.1620    1.6770 H   0  0  0  0  0  0  0  0  0  0  0  0
   -1.8060   -1.2510    1.6660 H   0  0  0  0  0  0  0  0  0  0  0  0
    1.9730    0.8530    1.6890 H   0  0  0  0  0  0  0  0  0  0  0  0
    1.9410   -0.9230    1.6890 H   0  0  0  0  0  0  0  0  0  0  0  0
   -0.9160    3.4680   -0.4290 H   0  0  0  0  0  0  0  0  0  0  0  0
   -1.4330    2.5860   -1.8790 H   0  0  0  0  0  0  0  0  0  0  0  0
   -2.4640    2.6120   -0.4410 H   0  0  0  0  0  0  0  0  0  0  0  0
   -2.5570   -2.5220   -0.4420 H   0  0  0  0  0  0  0  0  0  0  0  0
   -1.5250   -2.5330   -1.8790 H   0  0  0  0  0  0  0  0  0  0  0  0
   -1.0400   -3.4340   -0.4290 H   0  0  0  0  0  0  0  0  0  0  0  0
  1 14  1  0  0  0  0
  1 15  1  0  0  0  0
  1 16  1  0  0  0  0
  2  6  1  0  0  0  0
  2  7  1  0  0  0  0
  2  9  1  0  0  0  0
  2 12  1  6  0  0  0
  3  6  1  0  0  0  0
  3  8  1  0  0  0  0
  3 10  1  0  0  0  0
  3 13  1  6  0  0  0
  4  1  1  6  0  0  0
  4  7  1  0  0  0  0
  4  8  1  0  0  0  0
  4 11  1  0  0  0  0
  5  9  1  0  0  0  0
  5 10  1  0  0  0  0
  5 11  1  0  0  0  0
  5 17  1  1  0  0  0
  6 18  1  0  0  0  0
  6 19  1  0  0  0  0
  7 20  1  0  0  0  0
  7 21  1  0  0  0  0
  8 22  1  0  0  0  0
  8 23  1  0  0  0  0
  9 24  1  0  0  0  0
  9 25  1  0  0  0  0
 10 26  1  0  0  0  0
 10 27  1  0  0  0  0
 11 28  1  0  0  0  0
 11 29  1  0  0  0  0
 12 30  1  0  0  0  0
 12 31  1  0  0  0  0
 12 32  1  0  0  0  0
 13 33  1  0  0  0  0
 13 34  1  0  0  0  0
 13 35  1  0  0  0  0
M  END
$$$$
