CB7
 OpenBabel10281611593D

126147  0  0  1  0  0  0  0  0999 V2000
   -3.1000   -4.4220   -1.2760 N   0  0  0  0  0  0  0  0  0  0  0  0
   -2.9900   -4.3330    1.2080 N   0  0  0  0  0  0  0  0  0  0  0  0
   -4.5880   -2.6970   -1.2250 N   0  0  0  0  0  0  0  0  0  0  0  0
   -4.6130   -2.7250    1.2600 N   0  0  0  0  0  0  0  0  0  0  0  0
   -5.3440   -0.3520   -1.2530 N   0  0  0  0  0  0  0  0  0  0  0  0
   -5.3140   -0.3570    1.2330 N   0  0  0  0  0  0  0  0  0  0  0  0
   -4.9420    1.8930   -1.2190 N   0  0  0  0  0  0  0  0  0  0  0  0
   -5.0380    1.9060    1.2650 N   0  0  0  0  0  0  0  0  0  0  0  0
   -3.6060    3.9660   -1.2770 N   0  0  0  0  0  0  0  0  0  0  0  0
   -3.5860    3.8980    1.2090 N   0  0  0  0  0  0  0  0  0  0  0  0
   -1.6050    5.0600   -1.2360 N   0  0  0  0  0  0  0  0  0  0  0  0
   -1.6340    5.0800    1.2480 N   0  0  0  0  0  0  0  0  0  0  0  0
    0.8530    5.2750   -1.2430 N   0  0  0  0  0  0  0  0  0  0  0  0
    0.8290    5.2450    1.2420 N   0  0  0  0  0  0  0  0  0  0  0  0
    2.9660    4.4160   -1.2160 N   0  0  0  0  0  0  0  0  0  0  0  0
    2.9660    4.4490    1.2710 N   0  0  0  0  0  0  0  0  0  0  0  0
    4.6740    2.6390   -1.2540 N   0  0  0  0  0  0  0  0  0  0  0  0
    4.6060    2.6090    1.2300 N   0  0  0  0  0  0  0  0  0  0  0  0
    5.3140    0.4500   -1.2440 N   0  0  0  0  0  0  0  0  0  0  0  0
    5.3210    0.4420    1.2420 N   0  0  0  0  0  0  0  0  0  0  0  0
    4.9590   -1.9910   -1.2550 N   0  0  0  0  0  0  0  0  0  0  0  0
    4.9610   -1.9950    1.2330 N   0  0  0  0  0  0  0  0  0  0  0  0
    3.6170   -3.8400   -1.2210 N   0  0  0  0  0  0  0  0  0  0  0  0
    3.7230   -3.9080    1.2620 N   0  0  0  0  0  0  0  0  0  0  0  0
    1.5190   -5.1420   -1.2830 N   0  0  0  0  0  0  0  0  0  0  0  0
    1.5400   -5.0460    1.2000 N   0  0  0  0  0  0  0  0  0  0  0  0
   -0.7640   -5.2060   -1.2000 N   0  0  0  0  0  0  0  0  0  0  0  0
   -0.7270   -5.3240    1.2820 N   0  0  0  0  0  0  0  0  0  0  0  0
   -3.4500   -3.2000   -1.8980 C   0  0  0  0  0  0  0  0  0  0  0  0
   -3.4200   -3.1630    1.8830 C   0  0  0  0  0  0  0  0  0  0  0  0
   -3.8150   -4.6300    0.0070 C   0  0  1  0  0  0  0  0  0  0  0  0
   -4.2460   -5.6650    0.0510 H   0  0  0  0  0  0  0  0  0  0  0  0
   -4.9050   -3.4640    0.0090 C   0  0  2  0  0  0  0  0  0  0  0  0
   -5.9680   -3.8220    0.0020 H   0  0  0  0  0  0  0  0  0  0  0  0
   -5.5090   -1.7050   -1.8090 C   0  0  0  0  0  0  0  0  0  0  0  0
   -5.3240   -1.6540   -2.9190 H   0  0  0  0  0  0  0  0  0  0  0  0
   -6.5650   -2.0380   -1.6210 H   0  0  0  0  0  0  0  0  0  0  0  0
   -5.5090   -1.6970    1.8180 C   0  0  0  0  0  0  0  0  0  0  0  0
   -5.3260   -1.6340    2.9270 H   0  0  0  0  0  0  0  0  0  0  0  0
   -6.5690   -2.0210    1.6300 H   0  0  0  0  0  0  0  0  0  0  0  0
   -4.6210    0.6850   -1.8840 C   0  0  0  0  0  0  0  0  0  0  0  0
   -4.6580    0.7010    1.9050 C   0  0  0  0  0  0  0  0  0  0  0  0
   -6.0080    0.0930   -0.0010 C   0  0  1  0  0  0  0  0  0  0  0  0
   -7.0860   -0.2140    0.0040 H   0  0  0  0  0  0  0  0  0  0  0  0
   -5.7690    1.6710   -0.0040 C   0  0  2  0  0  0  0  0  0  0  0  0
   -6.7090    2.2800   -0.0350 H   0  0  0  0  0  0  0  0  0  0  0  0
   -4.7550    3.2240   -1.8240 C   0  0  0  0  0  0  0  0  0  0  0  0
   -5.6810    3.8370   -1.6490 H   0  0  0  0  0  0  0  0  0  0  0  0
   -4.5940    3.0990   -2.9320 H   0  0  0  0  0  0  0  0  0  0  0  0
   -4.7690    3.2490    1.8050 C   0  0  0  0  0  0  0  0  0  0  0  0
   -5.6700    3.8920    1.6140 H   0  0  0  0  0  0  0  0  0  0  0  0
   -4.6030    3.1530    2.9150 H   0  0  0  0  0  0  0  0  0  0  0  0
   -2.3420    4.0550   -1.9060 C   0  0  0  0  0  0  0  0  0  0  0  0
   -2.3490    4.0390    1.8840 C   0  0  0  0  0  0  0  0  0  0  0  0
   -3.6670    4.7430   -0.0120 C   0  0  1  0  0  0  0  0  0  0  0  0
   -4.5760    5.3960    0.0050 H   0  0  0  0  0  0  0  0  0  0  0  0
   -2.2840    5.5400   -0.0040 C   0  0  2  0  0  0  0  0  0  0  0  0
   -2.3930    6.6550   -0.0080 H   0  0  0  0  0  0  0  0  0  0  0  0
   -0.4270    5.7320   -1.8120 C   0  0  0  0  0  0  0  0  0  0  0  0
   -0.5170    6.8390   -1.6300 H   0  0  0  0  0  0  0  0  0  0  0  0
   -0.4090    5.5350   -2.9210 H   0  0  0  0  0  0  0  0  0  0  0  0
   -0.4400    5.7260    1.8200 C   0  0  0  0  0  0  0  0  0  0  0  0
   -0.4260    5.5240    2.9280 H   0  0  0  0  0  0  0  0  0  0  0  0
   -0.5170    6.8330    1.6420 H   0  0  0  0  0  0  0  0  0  0  0  0
    1.7180    4.3560   -1.8810 C   0  0  0  0  0  0  0  0  0  0  0  0
    1.7030    4.3500    1.9040 C   0  0  0  0  0  0  0  0  0  0  0  0
    1.4260    5.8230    0.0120 C   0  0  1  0  0  0  0  0  0  0  0  0
    1.3670    6.9420    0.0220 H   0  0  0  0  0  0  0  0  0  0  0  0
    2.9150    5.2430    0.0180 C   0  0  2  0  0  0  0  0  0  0  0  0
    3.7170    6.0260    0.0150 H   0  0  0  0  0  0  0  0  0  0  0  0
    4.2280    3.9320   -1.8010 C   0  0  0  0  0  0  0  0  0  0  0  0
    4.0870    3.8140   -2.9120 H   0  0  0  0  0  0  0  0  0  0  0  0
    5.0320    4.6930   -1.6030 H   0  0  0  0  0  0  0  0  0  0  0  0
    4.2110    3.8970    1.8290 C   0  0  0  0  0  0  0  0  0  0  0  0
    5.0350    4.6430    1.6580 H   0  0  0  0  0  0  0  0  0  0  0  0
    4.0660    3.7480    2.9360 H   0  0  0  0  0  0  0  0  0  0  0  0
    4.4950    1.3960   -1.9060 C   0  0  0  0  0  0  0  0  0  0  0  0
    4.4660    1.3640    1.8870 C   0  0  0  0  0  0  0  0  0  0  0  0
    5.4470    2.5160    0.0080 C   0  0  1  0  0  0  0  0  0  0  0  0
    6.2840    3.2610    0.0350 H   0  0  0  0  0  0  0  0  0  0  0  0
    5.9210    0.9930   -0.0000 C   0  0  2  0  0  0  0  0  0  0  0  0
    7.0340    0.8550   -0.0030 H   0  0  0  0  0  0  0  0  0  0  0  0
    5.6980   -0.8510   -1.8210 C   0  0  0  0  0  0  0  0  0  0  0  0
    5.5050   -0.8190   -2.9290 H   0  0  0  0  0  0  0  0  0  0  0  0
    6.7940   -1.0150   -1.6350 H   0  0  0  0  0  0  0  0  0  0  0  0
    5.7060   -0.8620    1.8060 C   0  0  0  0  0  0  0  0  0  0  0  0
    6.8040   -1.0200    1.6170 H   0  0  0  0  0  0  0  0  0  0  0  0
    5.5180   -0.8370    2.9170 H   0  0  0  0  0  0  0  0  0  0  0  0
    3.8520   -2.6110   -1.8840 C   0  0  0  0  0  0  0  0  0  0  0  0
    3.9000   -2.6550    1.8960 C   0  0  0  0  0  0  0  0  0  0  0  0
    5.3750   -2.6920   -0.0140 C   0  0  1  0  0  0  0  0  0  0  0  0
    6.4790   -2.8840   -0.0180 H   0  0  0  0  0  0  0  0  0  0  0  0
    4.4720   -4.0080   -0.0160 C   0  0  2  0  0  0  0  0  0  0  0  0
    5.0520   -4.9650   -0.0580 H   0  0  0  0  0  0  0  0  0  0  0  0
    2.8740   -4.9600   -1.8300 C   0  0  0  0  0  0  0  0  0  0  0  0
    2.7800   -4.7690   -2.9370 H   0  0  0  0  0  0  0  0  0  0  0  0
    3.4470   -5.9110   -1.6640 H   0  0  0  0  0  0  0  0  0  0  0  0
    2.8880   -4.9920    1.7990 C   0  0  0  0  0  0  0  0  0  0  0  0
    2.7850   -4.8390    2.9100 H   0  0  0  0  0  0  0  0  0  0  0  0
    3.4120   -5.9670    1.6050 H   0  0  0  0  0  0  0  0  0  0  0  0
    0.3410   -4.6530   -1.8950 C   0  0  0  0  0  0  0  0  0  0  0  0
    0.3660   -4.6640    1.8960 C   0  0  0  0  0  0  0  0  0  0  0  0
    1.2430   -5.8560   -0.0130 C   0  0  1  0  0  0  0  0  0  0  0  0
    1.7800   -6.8400    0.0090 H   0  0  0  0  0  0  0  0  0  0  0  0
   -0.3490   -5.9750    0.0040 C   0  0  2  0  0  0  0  0  0  0  0  0
   -0.7330   -7.0280   -0.0270 H   0  0  0  0  0  0  0  0  0  0  0  0
   -2.1000   -5.3630   -1.8070 C   0  0  0  0  0  0  0  0  0  0  0  0
   -2.0170   -5.1920   -2.9180 H   0  0  0  0  0  0  0  0  0  0  0  0
   -2.4700   -6.4070   -1.6180 H   0  0  0  0  0  0  0  0  0  0  0  0
   -2.0970   -5.3350    1.8210 C   0  0  0  0  0  0  0  0  0  0  0  0
   -2.5260   -6.3590    1.6530 H   0  0  0  0  0  0  0  0  0  0  0  0
   -2.0340   -5.1330    2.9280 H   0  0  0  0  0  0  0  0  0  0  0  0
   -2.9030   -2.6750    2.8740 O   0  0  0  0  0  0  0  0  0  0  0  0
   -2.9360   -2.7240   -2.8960 O   0  0  0  0  0  0  0  0  0  0  0  0
   -3.9190    0.5750   -2.8750 O   0  0  0  0  0  0  0  0  0  0  0  0
   -3.9770    0.6040    2.9120 O   0  0  0  0  0  0  0  0  0  0  0  0
    0.3200   -3.9730    2.9000 O   0  0  0  0  0  0  0  0  0  0  0  0
   -1.9890    3.4510   -2.9050 O   0  0  0  0  0  0  0  0  0  0  0  0
   -2.0040    3.4330    2.8850 O   0  0  0  0  0  0  0  0  0  0  0  0
    1.4630    3.7000   -2.8770 O   0  0  0  0  0  0  0  0  0  0  0  0
    1.4440    3.6930    2.8990 O   0  0  0  0  0  0  0  0  0  0  0  0
    3.8380    1.1980   -2.9130 O   0  0  0  0  0  0  0  0  0  0  0  0
    3.7970    1.1490    2.8840 O   0  0  0  0  0  0  0  0  0  0  0  0
    3.2600   -2.2000   -2.8670 O   0  0  0  0  0  0  0  0  0  0  0  0
    3.3220   -2.2660    2.8980 O   0  0  0  0  0  0  0  0  0  0  0  0
    0.2820   -3.9530   -2.8910 O   0  0  0  0  0  0  0  0  0  0  0  0
  1 29  1  0  0  0  0
  1 31  1  0  0  0  0
  1107  1  0  0  0  0
  2 30  1  0  0  0  0
  2 31  1  0  0  0  0
  2110  1  0  0  0  0
  3 29  1  0  0  0  0
  3 33  1  0  0  0  0
  3 35  1  0  0  0  0
  4 30  1  0  0  0  0
  4 33  1  0  0  0  0
  4 38  1  0  0  0  0
  5 35  1  0  0  0  0
  5 41  1  0  0  0  0
  5 43  1  0  0  0  0
  6 38  1  0  0  0  0
  6 42  1  0  0  0  0
  6 43  1  0  0  0  0
  7 41  1  0  0  0  0
  7 45  1  0  0  0  0
  7 47  1  0  0  0  0
  8 42  1  0  0  0  0
  8 45  1  0  0  0  0
  8 50  1  0  0  0  0
  9 47  1  0  0  0  0
  9 53  1  0  0  0  0
  9 55  1  0  0  0  0
 10 50  1  0  0  0  0
 10 54  1  0  0  0  0
 10 55  1  0  0  0  0
 11 53  1  0  0  0  0
 11 57  1  0  0  0  0
 11 59  1  0  0  0  0
 12 54  1  0  0  0  0
 12 57  1  0  0  0  0
 12 62  1  0  0  0  0
 13 59  1  0  0  0  0
 13 65  1  0  0  0  0
 13 67  1  0  0  0  0
 14 62  1  0  0  0  0
 14 66  1  0  0  0  0
 14 67  1  0  0  0  0
 15 65  1  0  0  0  0
 15 69  1  0  0  0  0
 15 71  1  0  0  0  0
 16 66  1  0  0  0  0
 16 69  1  0  0  0  0
 16 74  1  0  0  0  0
 17 71  1  0  0  0  0
 17 77  1  0  0  0  0
 17 79  1  0  0  0  0
 18 74  1  0  0  0  0
 18 78  1  0  0  0  0
 18 79  1  0  0  0  0
 19 77  1  0  0  0  0
 19 81  1  0  0  0  0
 19 83  1  0  0  0  0
 20 78  1  0  0  0  0
 20 81  1  0  0  0  0
 20 86  1  0  0  0  0
 21 83  1  0  0  0  0
 21 89  1  0  0  0  0
 21 91  1  0  0  0  0
 22 86  1  0  0  0  0
 22 90  1  0  0  0  0
 22 91  1  0  0  0  0
 23 89  1  0  0  0  0
 23 93  1  0  0  0  0
 23 95  1  0  0  0  0
 24 90  1  0  0  0  0
 24 93  1  0  0  0  0
 24 98  1  0  0  0  0
 25 95  1  0  0  0  0
 25101  1  0  0  0  0
 25103  1  0  0  0  0
 26 98  1  0  0  0  0
 26102  1  0  0  0  0
 26103  1  0  0  0  0
 27101  1  0  0  0  0
 27105  1  0  0  0  0
 27107  1  0  0  0  0
 28102  1  0  0  0  0
 28105  1  0  0  0  0
 28110  1  0  0  0  0
 29114  2  0  0  0  0
 30113  2  0  0  0  0
 31 32  1  1  0  0  0
 31 33  1  0  0  0  0
 33 34  1  6  0  0  0
 35 36  1  0  0  0  0
 35 37  1  0  0  0  0
 38 39  1  0  0  0  0
 38 40  1  0  0  0  0
 41115  2  0  0  0  0
 42116  2  0  0  0  0
 43 44  1  1  0  0  0
 43 45  1  0  0  0  0
 45 46  1  6  0  0  0
 47 48  1  0  0  0  0
 47 49  1  0  0  0  0
 50 51  1  0  0  0  0
 50 52  1  0  0  0  0
 53118  2  0  0  0  0
 54119  2  0  0  0  0
 55 56  1  1  0  0  0
 55 57  1  0  0  0  0
 57 58  1  6  0  0  0
 59 60  1  0  0  0  0
 59 61  1  0  0  0  0
 62 63  1  0  0  0  0
 62 64  1  0  0  0  0
 65120  2  0  0  0  0
 66121  2  0  0  0  0
 67 68  1  1  0  0  0
 67 69  1  0  0  0  0
 69 70  1  6  0  0  0
 71 72  1  0  0  0  0
 71 73  1  0  0  0  0
 74 75  1  0  0  0  0
 74 76  1  0  0  0  0
 77122  2  0  0  0  0
 78123  2  0  0  0  0
 79 80  1  1  0  0  0
 79 81  1  0  0  0  0
 81 82  1  6  0  0  0
 83 84  1  0  0  0  0
 83 85  1  0  0  0  0
 86 87  1  0  0  0  0
 86 88  1  0  0  0  0
 89124  2  0  0  0  0
 90125  2  0  0  0  0
 91 92  1  6  0  0  0
 91 93  1  0  0  0  0
 93 94  1  6  0  0  0
 95 96  1  0  0  0  0
 95 97  1  0  0  0  0
 98 99  1  0  0  0  0
 98100  1  0  0  0  0
101126  2  0  0  0  0
102117  2  0  0  0  0
103104  1  1  0  0  0
103105  1  0  0  0  0
105106  1  6  0  0  0
107108  1  0  0  0  0
107109  1  0  0  0  0
110111  1  0  0  0  0
110112  1  0  0  0  0
M  END
$$$$
