MOL
 OpenBabel10271613493D

 14 14  0  0  0  0  0  0  0  0999 V2000
    0.0000    1.2080    1.8340 C   0  0  0  0  0  0  0  0  0  0  0  0
   -0.0000   -0.0000    2.5390 C   0  0  0  0  0  0  0  0  0  0  0  0
   -0.0000   -1.2080    1.8340 C   0  0  0  0  0  0  0  0  0  0  0  0
   -0.0000   -1.2030    0.4370 C   0  0  0  0  0  0  0  0  0  0  0  0
    0.0000    0.0000   -0.2800 C   0  0  0  0  0  0  0  0  0  0  0  0
    0.0000    1.2030    0.4370 C   0  0  0  0  0  0  0  0  0  0  0  0
    0.0000    2.1520    2.3780 H   0  0  0  0  0  0  0  0  0  0  0  0
   -0.0000   -2.1520    2.3780 H   0  0  0  0  0  0  0  0  0  0  0  0
   -0.0000   -2.1210   -0.1440 H   0  0  0  0  0  0  0  0  0  0  0  0
    0.0000    2.1210   -0.1440 H   0  0  0  0  0  0  0  0  0  0  0  0
    0.0000    0.0000   -1.8360 C   0  0  0  0  0  0  0  0  0  0  0  0
    0.0000    1.1390   -2.3670 O   0  0  0  0  0  0  0  0  0  0  0  0
   -0.0000   -1.1390   -2.3670 O   0  0  0  0  0  0  0  0  0  0  0  0
   -0.0000   -0.0000    3.6290 H   0  0  0  0  0  0  0  0  0  0  0  0
  1  2  2  0  0  0  0
  1  6  1  0  0  0  0
  1  7  1  0  0  0  0
  2  3  1  0  0  0  0
  2 14  1  0  0  0  0
  3  4  2  0  0  0  0
  3  8  1  0  0  0  0
  4  5  1  0  0  0  0
  4  9  1  0  0  0  0
  5  6  2  0  0  0  0
  5 11  1  0  0  0  0
  6 10  1  0  0  0  0
 11 12  1  0  0  0  0
 11 13  1  0  0  0  0
M  END
$$$$
