MOL
  -OEChem-06041909203D

 15 15  0     0  0  0  0  0  0999 V2000
   -0.3130   -1.2040   -0.0000 Ca  0  0  0  0  0  0  0  0  0  0  0  0
    1.0760   -1.2040    0.0000 Ca  0  0  0  0  0  0  0  0  0  0  0  0
    1.7840   -0.0000    0.0000 Ca  0  0  0  0  0  0  0  0  0  0  0  0
    1.0760    1.2050    0.0000 Ca  0  0  0  0  0  0  0  0  0  0  0  0
   -0.3130    1.2050    0.0000 Ca  0  0  0  0  0  0  0  0  0  0  0  0
   -1.0340   -0.0000   -0.0000 Ca  0  0  0  0  0  0  0  0  0  0  0  0
    3.2230   -0.0000   -0.0000 C   0  0  0  0  0  0  0  0  0  0  0  0
    4.3670   -0.0000   -0.0000 N   0  0  0  0  0  0  0  0  0  0  0  0
   -2.5070    0.0000   -0.0000 C   0  3  0  0  0  0  0  0  0  0  0  0
   -3.1270    1.0990   -0.0000 O   0  5  0  0  0  0  0  0  0  0  0  0
   -3.1270   -1.0990    0.0000 O   0  5  0  0  0  0  0  0  0  0  0  0
   -0.8470   -2.1220   -0.0000 H   0  0  0  0  0  0  0  0  0  0  0  0
    1.5980   -2.1280    0.0010 H   0  0  0  0  0  0  0  0  0  0  0  0
    1.5970    2.1280   -0.0010 H   0  0  0  0  0  0  0  0  0  0  0  0
   -0.8460    2.1230    0.0000 H   0  0  0  0  0  0  0  0  0  0  0  0
  1  2  1  0  0  0  0
  1  6  1  0  0  0  0
  1 12  1  0  0  0  0
  2  3  1  0  0  0  0
  2 13  1  0  0  0  0
  3  4  1  0  0  0  0
  3  7  1  0  0  0  0
  4  5  1  0  0  0  0
  4 14  1  0  0  0  0
  5  6  1  0  0  0  0
  5 15  1  0  0  0  0
  6  9  1  0  0  0  0
  7  8  3  0  0  0  0
  9 10  1  0  0  0  0
  9 11  1  0  0  0  0
M  CHG  3   9   1  10  -1  11  -1
M  END
$$$$
