MOL
  -OEChem-06041909203D

 15 14  0     0  0  0  0  0  0999 V2000
    3.6830    0.1100   -0.4130 C   0  0  0  0  0  0  0  0  0  0  0  0
    2.5400    0.2760   -0.1170 C   0  0  0  0  0  0  0  0  0  0  0  0
    1.1200    0.4830    0.2490 C   0  0  0  0  0  0  0  0  0  0  0  0
    0.4650   -0.9150    0.2200 C   0  0  0  0  0  0  0  0  0  0  0  0
   -0.9770   -0.7750    0.7560 C   0  0  0  0  0  0  0  0  0  0  0  0
   -1.8720    0.1210   -0.0860 C   0  3  0  0  0  0  0  0  0  0  0  0
   -1.9630    1.3150    0.2710 O   0  5  0  0  0  0  0  0  0  0  0  0
   -2.4380   -0.4070   -1.0640 O   0  5  0  0  0  0  0  0  0  0  0  0
    4.6760   -0.0350   -0.6710 H   0  0  0  0  0  0  0  0  0  0  0  0
    1.0700    0.8910    1.2500 H   0  0  0  0  0  0  0  0  0  0  0  0
    0.6530    1.1230   -0.4880 H   0  0  0  0  0  0  0  0  0  0  0  0
    0.4370   -1.2940   -0.8050 H   0  0  0  0  0  0  0  0  0  0  0  0
    1.0190   -1.6090    0.8540 H   0  0  0  0  0  0  0  0  0  0  0  0
   -1.4430   -1.7580    0.7810 H   0  0  0  0  0  0  0  0  0  0  0  0
   -0.9620   -0.3790    1.7690 H   0  0  0  0  0  0  0  0  0  0  0  0
  1  2  3  0  0  0  0
  1  9  1  0  0  0  0
  2  3  1  0  0  0  0
  3  4  1  0  0  0  0
  3 10  1  0  0  0  0
  3 11  1  0  0  0  0
  4  5  1  0  0  0  0
  4 12  1  0  0  0  0
  4 13  1  0  0  0  0
  5  6  1  0  0  0  0
  5 14  1  0  0  0  0
  5 15  1  0  0  0  0
  6  7  1  0  0  0  0
  6  8  1  0  0  0  0
M  CHG  3   6   1   7  -1   8  -1
M  END
$$$$
