OCB
  -OEChem-06041909203D

196216  0     0  0  0  0  0  0999 V2000
    2.0590   -2.5260    2.9190 Ca  0  0  0  0  0  0  0  0  0  0  0  0
    3.7650   -0.4150    2.1400 Ca  0  0  0  0  0  0  0  0  0  0  0  0
    2.1210   -1.3250    3.6600 Ca  0  0  0  0  0  0  0  0  0  0  0  0
    2.8690   -2.6230    1.7750 Ca  0  0  0  0  0  0  0  0  0  0  0  0
    3.7530   -1.6040    1.4190 Ca  0  0  0  0  0  0  0  0  0  0  0  0
    2.9780   -0.2620    3.2890 Ca  0  0  0  0  0  0  0  0  0  0  0  0
    4.5890    0.5870    1.6950 Os  0  0  0  0  0  0  0  0  0  0  0  0
    3.0100    1.0750    4.0380 C   0  0  0  0  0  0  0  0  0  0  0  0
    3.8540    1.6020    0.9760 C   0  0  0  0  0  0  0  0  0  0  0  0
    3.6120    2.7670    1.7870 Os  0  0  0  0  0  0  0  0  0  0  0  0
    2.3330    2.7750    2.2810 Ca  0  0  0  0  0  0  0  0  0  0  0  0
    1.9750    2.0060    3.3960 Ca  0  0  0  0  0  0  0  0  0  0  0  0
    0.6300    2.0530    3.8160 Ca  0  0  0  0  0  0  0  0  0  0  0  0
    1.4070    3.5970    1.6370 Ca  0  0  0  0  0  0  0  0  0  0  0  0
   -0.3360    2.8660    3.1720 Ca  0  0  0  0  0  0  0  0  0  0  0  0
    0.0730    3.6010    2.0450 Ca  0  0  0  0  0  0  0  0  0  0  0  0
   -0.7850    4.3710    1.2950 Os  0  0  0  0  0  0  0  0  0  0  0  0
   -1.7890    2.9270    3.6750 C   0  0  0  0  0  0  0  0  0  0  0  0
   -2.6510    1.9280    2.9020 Ca  0  0  0  0  0  0  0  0  0  0  0  0
   -3.1970    2.2780    1.6550 Ca  0  0  0  0  0  0  0  0  0  0  0  0
   -1.6560    3.5500    0.4900 C   0  0  0  0  0  0  0  0  0  0  0  0
   -2.9730    3.5060    1.0800 Os  0  0  0  0  0  0  0  0  0  0  0  0
    2.8170   -3.7110    0.9390 Os  0  0  0  0  0  0  0  0  0  0  0  0
    1.0890   -3.6680    3.2730 C   0  0  0  0  0  0  0  0  0  0  0  0
   -0.2280   -3.4560    2.5210 Ca  0  0  0  0  0  0  0  0  0  0  0  0
    0.6390   -4.5780    0.5480 Os  0  0  0  0  0  0  0  0  0  0  0  0
   -0.3780   -3.9380    1.2130 Ca  0  0  0  0  0  0  0  0  0  0  0  0
   -3.9720    1.3810    0.9210 Ca  0  0  0  0  0  0  0  0  0  0  0  0
   -4.1170    0.0710    1.3710 Ca  0  0  0  0  0  0  0  0  0  0  0  0
   -1.5880   -3.8060    0.5330 Ca  0  0  0  0  0  0  0  0  0  0  0  0
   -2.6390   -3.0960    1.1140 Ca  0  0  0  0  0  0  0  0  0  0  0  0
   -4.7810   -0.7990    0.5390 Os  0  0  0  0  0  0  0  0  0  0  0  0
   -3.7780   -2.9400    0.3620 Os  0  0  0  0  0  0  0  0  0  0  0  0
   -3.8460   -1.6140   -0.1990 C   0  0  0  0  0  0  0  0  0  0  0  0
   -1.3110   -2.7540    3.0930 Ca  0  0  0  0  0  0  0  0  0  0  0  0
   -2.5350   -2.5810    2.4150 Ca  0  0  0  0  0  0  0  0  0  0  0  0
   -2.8550    0.6090    3.3560 Ca  0  0  0  0  0  0  0  0  0  0  0  0
   -3.6980   -1.7990    3.0410 C   0  0  0  0  0  0  0  0  0  0  0  0
   -3.5880   -0.3370    2.6060 Ca  0  0  0  0  0  0  0  0  0  0  0  0
    1.6440   -3.6460    0.1020 C   0  0  0  0  0  0  0  0  0  0  0  0
   -1.8920    2.8800    5.2330 C   0  0  0  0  0  0  0  0  0  0  0  0
   -3.2770    3.2440    5.7840 C   0  0  0  0  0  0  0  0  0  0  0  0
   -3.3200    3.6810    7.2590 C   0  3  0  0  0  0  0  0  0  0  0  0
   -2.2800    3.4970    7.9490 O   0  5  0  0  0  0  0  0  0  0  0  0
    2.9630    0.9330    5.5800 C   0  0  0  0  0  0  0  0  0  0  0  0
    3.4210    2.1990    6.3180 C   0  0  0  0  0  0  0  0  0  0  0  0
    4.9430    2.3570    6.4180 C   0  3  0  0  0  0  0  0  0  0  0  0
    5.5270    1.5680    7.2180 O   0  5  0  0  0  0  0  0  0  0  0  0
    0.9470   -3.9260    4.8020 C   0  0  0  0  0  0  0  0  0  0  0  0
    0.1270   -5.1720    5.1670 C   0  0  0  0  0  0  0  0  0  0  0  0
    0.9210   -6.4790    5.1260 C   0  3  0  0  0  0  0  0  0  0  0  0
    1.6850   -6.6870    6.1150 O   0  5  0  0  0  0  0  0  0  0  0  0
   -3.8820   -2.0630    4.5650 C   0  0  0  0  0  0  0  0  0  0  0  0
   -5.2220   -1.5520    5.1130 C   0  0  0  0  0  0  0  0  0  0  0  0
   -5.6100   -2.1380    6.4790 C   0  3  0  0  0  0  0  0  0  0  0  0
   -4.6700   -2.3730    7.2870 O   0  5  0  0  0  0  0  0  0  0  0  0
    4.6930    2.0390   -0.2350 Ca  0  0  0  0  0  0  0  0  0  0  0  0
    6.1290    2.7700   -2.5370 Ca  0  0  0  0  0  0  0  0  0  0  0  0
    4.5450    3.3240   -0.7990 Ca  0  0  0  0  0  0  0  0  0  0  0  0
    5.5640    1.1290   -0.8610 Ca  0  0  0  0  0  0  0  0  0  0  0  0
    6.2700    1.4870   -2.0100 Ca  0  0  0  0  0  0  0  0  0  0  0  0
    5.2420    3.6780   -1.9550 Ca  0  0  0  0  0  0  0  0  0  0  0  0
    2.0490   -3.9870   -1.3430 Ca  0  0  0  0  0  0  0  0  0  0  0  0
    2.7120   -4.4700   -4.0280 Ca  0  0  0  0  0  0  0  0  0  0  0  0
    1.1450   -4.6440   -2.2040 Ca  0  0  0  0  0  0  0  0  0  0  0  0
    3.2920   -3.5660   -1.8690 Ca  0  0  0  0  0  0  0  0  0  0  0  0
    3.6270   -3.8090   -3.2020 Ca  0  0  0  0  0  0  0  0  0  0  0  0
    1.4700   -4.8840   -3.5390 Ca  0  0  0  0  0  0  0  0  0  0  0  0
   -4.3120   -1.7290   -1.6630 Ca  0  0  0  0  0  0  0  0  0  0  0  0
   -5.0310   -1.8980   -4.3780 Ca  0  0  0  0  0  0  0  0  0  0  0  0
   -5.1000   -0.7260   -2.2630 Ca  0  0  0  0  0  0  0  0  0  0  0  0
   -3.8760   -2.8050   -2.4680 Ca  0  0  0  0  0  0  0  0  0  0  0  0
   -4.2350   -2.8960   -3.8140 Ca  0  0  0  0  0  0  0  0  0  0  0  0
   -5.4430   -0.8030   -3.6150 Ca  0  0  0  0  0  0  0  0  0  0  0  0
   -1.7410    4.1250   -0.9440 Ca  0  0  0  0  0  0  0  0  0  0  0  0
   -1.8220    4.9570   -3.6250 Ca  0  0  0  0  0  0  0  0  0  0  0  0
   -2.9430    4.0570   -1.6900 Ca  0  0  0  0  0  0  0  0  0  0  0  0
   -0.5790    4.6200   -1.5860 Ca  0  0  0  0  0  0  0  0  0  0  0  0
   -0.6210    5.0360   -2.9190 Ca  0  0  0  0  0  0  0  0  0  0  0  0
   -2.9800    4.4650   -3.0250 Ca  0  0  0  0  0  0  0  0  0  0  0  0
    4.8010   -3.4410   -3.8260 Os  0  0  0  0  0  0  0  0  0  0  0  0
   -3.8780   -3.9070   -4.6820 Os  0  0  0  0  0  0  0  0  0  0  0  0
   -6.2130    0.1270   -4.2830 Os  0  0  0  0  0  0  0  0  0  0  0  0
    7.1360    0.6510   -2.6840 Os  0  0  0  0  0  0  0  0  0  0  0  0
    5.1450    4.9000   -2.5800 Os  0  0  0  0  0  0  0  0  0  0  0  0
   -4.0920    4.4800   -3.8390 Os  0  0  0  0  0  0  0  0  0  0  0  0
    0.4400    5.4640   -3.6850 Os  0  0  0  0  0  0  0  0  0  0  0  0
   -2.9430   -4.8310   -4.2700 Ca  0  0  0  0  0  0  0  0  0  0  0  0
   -1.1410   -6.8410   -3.5910 Ca  0  0  0  0  0  0  0  0  0  0  0  0
   -1.5840   -4.6500   -4.5760 Ca  0  0  0  0  0  0  0  0  0  0  0  0
   -3.4020   -6.0210   -3.6920 Ca  0  0  0  0  0  0  0  0  0  0  0  0
   -2.5120   -7.0600   -3.3760 Ca  0  0  0  0  0  0  0  0  0  0  0  0
   -0.6830   -5.6460   -4.1650 Ca  0  0  0  0  0  0  0  0  0  0  0  0
    0.6610   -5.5370   -4.4500 Os  0  0  0  0  0  0  0  0  0  0  0  0
    6.9280   -0.7120   -2.5890 Ca  0  0  0  0  0  0  0  0  0  0  0  0
    6.7680   -3.4900   -2.4770 Ca  0  0  0  0  0  0  0  0  0  0  0  0
    7.9300   -1.4500   -1.9460 Ca  0  0  0  0  0  0  0  0  0  0  0  0
    5.8540   -1.3530   -3.2330 Ca  0  0  0  0  0  0  0  0  0  0  0  0
    5.7650   -2.7520   -3.1210 Ca  0  0  0  0  0  0  0  0  0  0  0  0
    7.8820   -2.8530   -1.9030 Ca  0  0  0  0  0  0  0  0  0  0  0  0
   -6.1670    1.4370   -3.8530 Ca  0  0  0  0  0  0  0  0  0  0  0  0
   -6.3090    4.1130   -3.1050 Ca  0  0  0  0  0  0  0  0  0  0  0  0
   -7.3650    1.9690   -3.3560 Ca  0  0  0  0  0  0  0  0  0  0  0  0
   -5.0380    2.2530   -4.0540 Ca  0  0  0  0  0  0  0  0  0  0  0  0
   -5.1100    3.5830   -3.6050 Ca  0  0  0  0  0  0  0  0  0  0  0  0
   -7.4660    3.3240   -3.0060 Ca  0  0  0  0  0  0  0  0  0  0  0  0
   -8.7990    3.9320   -2.6140 C   0  3  0  0  0  0  0  0  0  0  0  0
   -9.8120    3.1620   -2.5950 O   0  5  0  0  0  0  0  0  0  0  0  0
    3.0920    9.3090   -2.2010 C   0  3  0  0  0  0  0  0  0  0  0  0
    4.2590    9.7520   -1.9480 O   0  5  0  0  0  0  0  0  0  0  0  0
    9.0400   -3.6530   -1.3350 C   0  3  0  0  0  0  0  0  0  0  0  0
    9.0150   -4.9160   -1.4940 O   0  5  0  0  0  0  0  0  0  0  0  0
   -4.4060    4.2350    7.6160 O   0  5  0  0  0  0  0  0  0  0  0  0
   -6.8530   -2.3320    6.6440 O   0  5  0  0  0  0  0  0  0  0  0  0
    0.6790   -7.2420    4.1490 O   0  5  0  0  0  0  0  0  0  0  0  0
   -3.0310   -8.4050   -2.9020 C   0  3  0  0  0  0  0  0  0  0  0  0
   -2.1800   -9.3470   -2.7750 O   0  5  0  0  0  0  0  0  0  0  0  0
    2.0640   10.0360   -2.3850 O   0  5  0  0  0  0  0  0  0  0  0  0
   -8.8330    5.1890   -2.4070 O   0  5  0  0  0  0  0  0  0  0  0  0
   -4.2870   -8.5320   -2.7620 O   0  5  0  0  0  0  0  0  0  0  0  0
   10.0050   -3.0020   -0.8160 O   0  5  0  0  0  0  0  0  0  0  0  0
    5.4410    3.3110    5.7530 O   0  5  0  0  0  0  0  0  0  0  0  0
    3.9410    5.5790   -2.5860 Ca  0  0  0  0  0  0  0  0  0  0  0  0
    1.7030    7.2490   -2.7540 Ca  0  0  0  0  0  0  0  0  0  0  0  0
    2.7300    5.0470   -3.0670 Ca  0  0  0  0  0  0  0  0  0  0  0  0
    4.0360    6.9440   -2.2660 Ca  0  0  0  0  0  0  0  0  0  0  0  0
    2.9330    7.8090   -2.3790 Ca  0  0  0  0  0  0  0  0  0  0  0  0
    1.6020    5.8900   -3.0830 Ca  0  0  0  0  0  0  0  0  0  0  0  0
    2.6160    3.6360   -3.5780 C   0  0  0  0  0  0  0  0  0  0  0  0
    4.8230   -0.5750   -4.0000 C   0  0  0  0  0  0  0  0  0  0  0  0
   -1.1150   -3.4240   -5.3030 C   0  0  0  0  0  0  0  0  0  0  0  0
   -3.8110    1.7290   -4.7420 C   0  0  0  0  0  0  0  0  0  0  0  0
    1.4730   -1.1980    4.5240 H   0  0  0  0  0  0  0  0  0  0  0  0
    4.4060   -1.7220    0.5630 H   0  0  0  0  0  0  0  0  0  0  0  0
    4.0020    1.5140    3.8630 H   0  0  0  0  0  0  0  0  0  0  0  0
    2.9200    1.1990    0.5490 H   0  0  0  0  0  0  0  0  0  0  0  0
    0.3230    1.4360    4.6560 H   0  0  0  0  0  0  0  0  0  0  0  0
    1.7220    4.2130    0.8040 H   0  0  0  0  0  0  0  0  0  0  0  0
   -2.1570    3.9340    3.4300 H   0  0  0  0  0  0  0  0  0  0  0  0
   -1.2390    2.5370    0.3490 H   0  0  0  0  0  0  0  0  0  0  0  0
    1.5370   -4.6010    2.9010 H   0  0  0  0  0  0  0  0  0  0  0  0
   -4.4140    1.6830   -0.0210 H   0  0  0  0  0  0  0  0  0  0  0  0
   -1.7010   -4.2420   -0.4520 H   0  0  0  0  0  0  0  0  0  0  0  0
   -2.8520   -1.1410   -0.2590 H   0  0  0  0  0  0  0  0  0  0  0  0
   -1.2020   -2.3370    4.0900 H   0  0  0  0  0  0  0  0  0  0  0  0
   -2.4050    0.3000    4.2950 H   0  0  0  0  0  0  0  0  0  0  0  0
   -4.6210   -2.2050    2.6030 H   0  0  0  0  0  0  0  0  0  0  0  0
    1.2400   -2.6200    0.0380 H   0  0  0  0  0  0  0  0  0  0  0  0
   -1.6080    1.8970    5.6280 H   0  0  0  0  0  0  0  0  0  0  0  0
   -1.1580    3.5890    5.6390 H   0  0  0  0  0  0  0  0  0  0  0  0
   -3.6950    4.0720    5.1990 H   0  0  0  0  0  0  0  0  0  0  0  0
   -3.9550    2.3900    5.6680 H   0  0  0  0  0  0  0  0  0  0  0  0
    3.6100    0.0980    5.8810 H   0  0  0  0  0  0  0  0  0  0  0  0
    1.9550    0.6730    5.9190 H   0  0  0  0  0  0  0  0  0  0  0  0
    2.9760    3.0950    5.8730 H   0  0  0  0  0  0  0  0  0  0  0  0
    3.0490    2.1500    7.3500 H   0  0  0  0  0  0  0  0  0  0  0  0
    1.9510   -4.0170    5.2370 H   0  0  0  0  0  0  0  0  0  0  0  0
    0.4840   -3.0640    5.2950 H   0  0  0  0  0  0  0  0  0  0  0  0
   -0.2300   -5.0560    6.1990 H   0  0  0  0  0  0  0  0  0  0  0  0
   -0.7740   -5.2590    4.5490 H   0  0  0  0  0  0  0  0  0  0  0  0
   -3.8310   -3.1470    4.7350 H   0  0  0  0  0  0  0  0  0  0  0  0
   -3.0650   -1.6300    5.1530 H   0  0  0  0  0  0  0  0  0  0  0  0
   -5.1960   -0.4610    5.2080 H   0  0  0  0  0  0  0  0  0  0  0  0
   -6.0240   -1.7980    4.4060 H   0  0  0  0  0  0  0  0  0  0  0  0
    6.6880    3.0560   -3.4220 H   0  0  0  0  0  0  0  0  0  0  0  0
    3.8850    4.0490   -0.3270 H   0  0  0  0  0  0  0  0  0  0  0  0
    5.6990    0.1370   -0.4340 H   0  0  0  0  0  0  0  0  0  0  0  0
    2.9710   -4.6650   -5.0640 H   0  0  0  0  0  0  0  0  0  0  0  0
    0.1910   -4.9810   -1.8070 H   0  0  0  0  0  0  0  0  0  0  0  0
    3.9970   -3.0610   -1.2170 H   0  0  0  0  0  0  0  0  0  0  0  0
   -5.3200   -1.9640   -5.4220 H   0  0  0  0  0  0  0  0  0  0  0  0
   -5.4510    0.1100   -1.6650 H   0  0  0  0  0  0  0  0  0  0  0  0
   -3.2640   -3.5810   -2.0180 H   0  0  0  0  0  0  0  0  0  0  0  0
   -1.8530    5.2750   -4.6640 H   0  0  0  0  0  0  0  0  0  0  0  0
   -3.8510    3.6920   -1.2180 H   0  0  0  0  0  0  0  0  0  0  0  0
    0.3580    4.6580   -1.0390 H   0  0  0  0  0  0  0  0  0  0  0  0
   -0.4300   -7.6230   -3.3260 H   0  0  0  0  0  0  0  0  0  0  0  0
   -4.4670   -6.1620   -3.5130 H   0  0  0  0  0  0  0  0  0  0  0  0
    6.7090   -4.5780   -2.4520 H   0  0  0  0  0  0  0  0  0  0  0  0
    8.7760   -0.9350   -1.4940 H   0  0  0  0  0  0  0  0  0  0  0  0
   -6.3600    5.1660   -2.8330 H   0  0  0  0  0  0  0  0  0  0  0  0
   -8.2440    1.3320   -3.2710 H   0  0  0  0  0  0  0  0  0  0  0  0
    0.8340    7.8970   -2.8580 H   0  0  0  0  0  0  0  0  0  0  0  0
    4.9990    7.3590   -1.9690 H   0  0  0  0  0  0  0  0  0  0  0  0
    3.5370    3.3170   -4.0730 H   0  0  0  0  0  0  0  0  0  0  0  0
    2.3810    2.9520   -2.7580 H   0  0  0  0  0  0  0  0  0  0  0  0
    1.8320    3.5430   -4.3370 H   0  0  0  0  0  0  0  0  0  0  0  0
    4.0100   -0.2680   -3.3350 H   0  0  0  0  0  0  0  0  0  0  0  0
    5.2600    0.3130   -4.4670 H   0  0  0  0  0  0  0  0  0  0  0  0
    4.4010   -1.1660   -4.8200 H   0  0  0  0  0  0  0  0  0  0  0  0
   -1.8590   -3.0930   -6.0350 H   0  0  0  0  0  0  0  0  0  0  0  0
   -0.9230   -2.6120   -4.5960 H   0  0  0  0  0  0  0  0  0  0  0  0
   -0.2010   -3.6210   -5.8740 H   0  0  0  0  0  0  0  0  0  0  0  0
   -3.1240    1.2860   -4.0150 H   0  0  0  0  0  0  0  0  0  0  0  0
   -4.0700    0.9770   -5.4950 H   0  0  0  0  0  0  0  0  0  0  0  0
   -3.2890    2.5210   -5.2890 H   0  0  0  0  0  0  0  0  0  0  0  0
  1  3  1  0  0  0  0
  1  4  1  0  0  0  0
  1 24  1  0  0  0  0
  2  5  1  0  0  0  0
  2  6  1  0  0  0  0
  2  7  1  0  0  0  0
  3  6  1  0  0  0  0
  3133  1  0  0  0  0
  4  5  1  0  0  0  0
  4 23  1  0  0  0  0
  5134  1  0  0  0  0
  6  8  1  0  0  0  0
  7  9  1  0  0  0  0
  8 12  1  0  0  0  0
  8 45  1  0  0  0  0
  8135  1  0  0  0  0
  9 10  1  0  0  0  0
  9 57  1  0  0  0  0
  9136  1  0  0  0  0
 10 11  1  0  0  0  0
 11 12  1  0  0  0  0
 11 14  1  0  0  0  0
 12 13  1  0  0  0  0
 13 15  1  0  0  0  0
 13137  1  0  0  0  0
 14 16  1  0  0  0  0
 14138  1  0  0  0  0
 15 16  1  0  0  0  0
 15 18  1  0  0  0  0
 16 17  1  0  0  0  0
 17 21  1  0  0  0  0
 18 19  1  0  0  0  0
 18 41  1  0  0  0  0
 18139  1  0  0  0  0
 19 20  1  0  0  0  0
 19 37  1  0  0  0  0
 20 22  1  0  0  0  0
 20 28  1  0  0  0  0
 21 22  1  0  0  0  0
 21 75  1  0  0  0  0
 21140  1  0  0  0  0
 23 40  1  0  0  0  0
 24 25  1  0  0  0  0
 24 49  1  0  0  0  0
 24141  1  0  0  0  0
 25 27  1  0  0  0  0
 25 35  1  0  0  0  0
 26 27  1  0  0  0  0
 26 40  1  0  0  0  0
 27 30  1  0  0  0  0
 28 29  1  0  0  0  0
 28142  1  0  0  0  0
 29 32  1  0  0  0  0
 29 39  1  0  0  0  0
 30 31  1  0  0  0  0
 30143  1  0  0  0  0
 31 33  1  0  0  0  0
 31 36  1  0  0  0  0
 32 34  1  0  0  0  0
 33 34  1  0  0  0  0
 34 69  1  0  0  0  0
 34144  1  0  0  0  0
 35 36  1  0  0  0  0
 35145  1  0  0  0  0
 36 38  1  0  0  0  0
 37 39  1  0  0  0  0
 37146  1  0  0  0  0
 38 39  1  0  0  0  0
 38 53  1  0  0  0  0
 38147  1  0  0  0  0
 40 63  1  0  0  0  0
 40148  1  0  0  0  0
 41 42  1  0  0  0  0
 41149  1  0  0  0  0
 41150  1  0  0  0  0
 42 43  1  0  0  0  0
 42151  1  0  0  0  0
 42152  1  0  0  0  0
 43 44  1  0  0  0  0
 43113  1  0  0  0  0
 45 46  1  0  0  0  0
 45153  1  0  0  0  0
 45154  1  0  0  0  0
 46 47  1  0  0  0  0
 46155  1  0  0  0  0
 46156  1  0  0  0  0
 47 48  1  0  0  0  0
 47122  1  0  0  0  0
 49 50  1  0  0  0  0
 49157  1  0  0  0  0
 49158  1  0  0  0  0
 50 51  1  0  0  0  0
 50159  1  0  0  0  0
 50160  1  0  0  0  0
 51 52  1  0  0  0  0
 51115  1  0  0  0  0
 53 54  1  0  0  0  0
 53161  1  0  0  0  0
 53162  1  0  0  0  0
 54 55  1  0  0  0  0
 54163  1  0  0  0  0
 54164  1  0  0  0  0
 55 56  1  0  0  0  0
 55114  1  0  0  0  0
 57 59  1  0  0  0  0
 57 60  1  0  0  0  0
 58 61  1  0  0  0  0
 58 62  1  0  0  0  0
 58165  1  0  0  0  0
 59 62  1  0  0  0  0
 59166  1  0  0  0  0
 60 61  1  0  0  0  0
 60167  1  0  0  0  0
 61 84  1  0  0  0  0
 62 85  1  0  0  0  0
 63 65  1  0  0  0  0
 63 66  1  0  0  0  0
 64 67  1  0  0  0  0
 64 68  1  0  0  0  0
 64168  1  0  0  0  0
 65 68  1  0  0  0  0
 65169  1  0  0  0  0
 66 67  1  0  0  0  0
 66170  1  0  0  0  0
 67 81  1  0  0  0  0
 68 94  1  0  0  0  0
 69 71  1  0  0  0  0
 69 72  1  0  0  0  0
 70 73  1  0  0  0  0
 70 74  1  0  0  0  0
 70171  1  0  0  0  0
 71 74  1  0  0  0  0
 71172  1  0  0  0  0
 72 73  1  0  0  0  0
 72173  1  0  0  0  0
 73 82  1  0  0  0  0
 74 83  1  0  0  0  0
 75 77  1  0  0  0  0
 75 78  1  0  0  0  0
 76 79  1  0  0  0  0
 76 80  1  0  0  0  0
 76174  1  0  0  0  0
 77 80  1  0  0  0  0
 77175  1  0  0  0  0
 78 79  1  0  0  0  0
 78176  1  0  0  0  0
 79 87  1  0  0  0  0
 80 86  1  0  0  0  0
 81 99  1  0  0  0  0
 82 88  1  0  0  0  0
 83101  1  0  0  0  0
 84 95  1  0  0  0  0
 85123  1  0  0  0  0
 86105  1  0  0  0  0
 87128  1  0  0  0  0
 88 90  1  0  0  0  0
 88 91  1  0  0  0  0
 89 92  1  0  0  0  0
 89 93  1  0  0  0  0
 89177  1  0  0  0  0
 90 93  1  0  0  0  0
 90131  1  0  0  0  0
 91 92  1  0  0  0  0
 91178  1  0  0  0  0
 92116  1  0  0  0  0
 93 94  1  0  0  0  0
 95 97  1  0  0  0  0
 95 98  1  0  0  0  0
 96 99  1  0  0  0  0
 96100  1  0  0  0  0
 96179  1  0  0  0  0
 97100  1  0  0  0  0
 97180  1  0  0  0  0
 98 99  1  0  0  0  0
 98130  1  0  0  0  0
100111  1  0  0  0  0
101103  1  0  0  0  0
101104  1  0  0  0  0
102105  1  0  0  0  0
102106  1  0  0  0  0
102181  1  0  0  0  0
103106  1  0  0  0  0
103182  1  0  0  0  0
104105  1  0  0  0  0
104132  1  0  0  0  0
106107  1  0  0  0  0
107108  1  0  0  0  0
107119  1  0  0  0  0
109110  1  0  0  0  0
109118  1  0  0  0  0
109127  1  0  0  0  0
111112  1  0  0  0  0
111121  1  0  0  0  0
116117  1  0  0  0  0
116120  1  0  0  0  0
123125  1  0  0  0  0
123126  1  0  0  0  0
124127  1  0  0  0  0
124128  1  0  0  0  0
124183  1  0  0  0  0
125128  1  0  0  0  0
125129  1  0  0  0  0
126127  1  0  0  0  0
126184  1  0  0  0  0
129185  1  0  0  0  0
129186  1  0  0  0  0
129187  1  0  0  0  0
130188  1  0  0  0  0
130189  1  0  0  0  0
130190  1  0  0  0  0
131191  1  0  0  0  0
131192  1  0  0  0  0
131193  1  0  0  0  0
132194  1  0  0  0  0
132195  1  0  0  0  0
132196  1  0  0  0  0
M  CHG  8  43   1  44  -1  47   1  48  -1  51   1  52  -1  55   1  56  -1
M  CHG  8 107   1 108  -1 109   1 110  -1 111   1 112  -1 113  -1 114  -1
M  CHG  8 115  -1 116   1 117  -1 118  -1 119  -1 120  -1 121  -1 122  -1
M  END
$$$$
