MOL
 OpenBabel10281611493D

 36 39  0  0  1  0  0  0  0  0999 V2000
    1.4980    0.0470   -0.0000 N   0  0  0  0  0  0  0  0  0  0  0  0
   -0.0480    0.0450   -0.0000 C   0  0  1  0  0  0  0  0  0  0  0  0
   -2.0830   -0.7410   -1.2600 C   0  0  1  0  0  0  0  0  0  0  0  0
   -2.0820   -0.7400    1.2610 C   0  0  2  0  0  0  0  0  0  0  0  0
   -2.1540    1.4300   -0.0010 C   0  0  1  0  0  0  0  0  0  0  0  0
   -0.5370   -0.6890   -1.2710 C   0  0  0  0  0  0  0  0  0  0  0  0
   -0.5370   -0.6870    1.2720 C   0  0  0  0  0  0  0  0  0  0  0  0
   -0.6060    1.4820   -0.0010 C   0  0  0  0  0  0  0  0  0  0  0  0
   -2.5610   -1.4890    0.0010 C   0  0  0  0  0  0  0  0  0  0  0  0
   -2.6430    0.6940   -1.2620 C   0  0  0  0  0  0  0  0  0  0  0  0
   -2.6430    0.6950    1.2620 C   0  0  0  0  0  0  0  0  0  0  0  0
    2.1470   -1.1450   -0.0000 C   0  0  0  0  0  0  0  0  0  0  0  0
    2.2170    1.1930   -0.0000 C   0  0  0  0  0  0  0  0  0  0  0  0
    3.5280   -1.2190   -0.0000 C   0  0  0  0  0  0  0  0  0  0  0  0
    3.6050    1.1780   -0.0000 C   0  0  0  0  0  0  0  0  0  0  0  0
    4.2780   -0.0420   -0.0000 C   0  0  0  0  0  0  0  0  0  0  0  0
   -2.4120   -1.2740   -2.1590 H   0  0  0  0  0  0  0  0  0  0  0  0
   -2.4120   -1.2720    2.1610 H   0  0  0  0  0  0  0  0  0  0  0  0
   -2.5230    2.4620   -0.0010 H   0  0  0  0  0  0  0  0  0  0  0  0
   -0.1400   -1.7100   -1.3110 H   0  0  0  0  0  0  0  0  0  0  0  0
   -0.1750   -0.1620   -2.1630 H   0  0  0  0  0  0  0  0  0  0  0  0
   -0.1740   -0.1600    2.1630 H   0  0  0  0  0  0  0  0  0  0  0  0
   -0.1400   -1.7090    1.3130 H   0  0  0  0  0  0  0  0  0  0  0  0
   -0.2660    2.0280   -0.8900 H   0  0  0  0  0  0  0  0  0  0  0  0
   -0.2660    2.0280    0.8880 H   0  0  0  0  0  0  0  0  0  0  0  0
   -3.6560   -1.5580    0.0010 H   0  0  0  0  0  0  0  0  0  0  0  0
   -2.1820   -2.5200    0.0010 H   0  0  0  0  0  0  0  0  0  0  0  0
   -2.3240    1.2280   -2.1670 H   0  0  0  0  0  0  0  0  0  0  0  0
   -3.7390    0.6690   -1.2780 H   0  0  0  0  0  0  0  0  0  0  0  0
   -3.7380    0.6710    1.2780 H   0  0  0  0  0  0  0  0  0  0  0  0
   -2.3230    1.2300    2.1660 H   0  0  0  0  0  0  0  0  0  0  0  0
    1.5300   -2.0320   -0.0000 H   0  0  0  0  0  0  0  0  0  0  0  0
    1.6630    2.1190   -0.0000 H   0  0  0  0  0  0  0  0  0  0  0  0
    4.0020   -2.1940   -0.0000 H   0  0  0  0  0  0  0  0  0  0  0  0
    4.1380    2.1220   -0.0000 H   0  0  0  0  0  0  0  0  0  0  0  0
    5.3630   -0.0760   -0.0000 H   0  0  0  0  0  0  0  0  0  0  0  0
  1 12  1  0  0  0  0
  1 13  2  0  0  0  0
  2  1  1  6  0  0  0
  2  6  1  0  0  0  0
  2  7  1  0  0  0  0
  2  8  1  0  0  0  0
  3  6  1  0  0  0  0
  3  9  1  0  0  0  0
  3 10  1  0  0  0  0
  3 17  1  6  0  0  0
  4  7  1  0  0  0  0
  4  9  1  0  0  0  0
  4 11  1  0  0  0  0
  4 18  1  1  0  0  0
  5  8  1  0  0  0  0
  5 10  1  0  0  0  0
  5 11  1  0  0  0  0
  5 19  1  6  0  0  0
  6 20  1  0  0  0  0
  6 21  1  0  0  0  0
  7 22  1  0  0  0  0
  7 23  1  0  0  0  0
  8 24  1  0  0  0  0
  8 25  1  0  0  0  0
  9 26  1  0  0  0  0
  9 27  1  0  0  0  0
 10 28  1  0  0  0  0
 10 29  1  0  0  0  0
 11 30  1  0  0  0  0
 11 31  1  0  0  0  0
 12 14  1  0  0  0  0
 12 32  1  0  0  0  0
 13 15  1  0  0  0  0
 13 33  1  0  0  0  0
 14 16  1  0  0  0  0
 14 34  1  0  0  0  0
 15 16  1  0  0  0  0
 15 35  1  0  0  0  0
 16 36  1  0  0  0  0
M  END
$$$$
