08K
 OpenBabel07261717083D

 37 40  0  0  0  0  0  0  0  0999 V2000
    3.2590    2.9010   13.4290 Cl  0  0  0  0  0  0  0  0  0  0  0  0
    2.9360    1.2890   12.8120 C   0  0  0  0  0  0  0  0  0  0  0  0
    2.3430    0.3620   13.6330 C   0  0  0  0  0  0  0  0  0  0  0  0
    2.0690   -0.9160   13.1160 C   0  0  0  0  0  0  0  0  0  0  0  0
    1.4040   -1.9100   14.0170 C   0  0  0  0  0  0  0  0  0  0  0  0
    0.2390   -1.4510   14.8530 C   0  0  0  0  0  0  0  0  0  0  0  0
   -0.5130   -0.3110   14.5260 C   0  0  0  0  0  0  0  0  0  0  0  0
   -1.6410    0.0420   15.2720 C   0  0  0  0  0  0  0  0  0  0  0  0
   -2.0370   -0.7510   16.3420 C   0  0  0  0  0  0  0  0  0  0  0  0
   -1.3100   -1.9100   16.6370 C   0  0  0  0  0  0  0  0  0  0  0  0
   -0.1850   -2.2490   15.9160 C   0  0  0  0  0  0  0  0  0  0  0  0
    1.7010   -3.1700   13.9680 N   0  0  0  0  0  0  0  0  0  0  0  0
    2.7470   -3.7670   13.1430 N   0  0  0  0  0  0  0  0  0  0  0  0
    3.4820   -4.9110   13.6300 C   0  0  0  0  0  0  0  0  0  0  0  0
    2.4970   -3.6210   11.8170 C   0  0  0  0  0  0  0  0  0  0  0  0
    2.1950   -2.4930   11.2130 N   0  0  0  0  0  0  0  0  0  0  0  0
    1.8170   -2.7700    9.9500 C   0  0  0  0  0  0  0  0  0  0  0  0
    1.4340   -1.8400    8.8530 C   0  0  0  0  0  0  0  0  0  0  0  0
    1.8190   -4.0880    9.8010 N   0  0  0  0  0  0  0  0  0  0  0  0
    2.2650   -4.6660   11.0030 N   0  0  0  0  0  0  0  0  0  0  0  0
    2.4030   -1.2480   11.7870 C   0  0  0  0  0  0  0  0  0  0  0  0
    3.0600   -0.2560   11.0340 C   0  0  0  0  0  0  0  0  0  0  0  0
    3.3050    1.0110   11.5140 C   0  0  0  0  0  0  0  0  0  0  0  0
    2.1040    0.5980   14.6090 H   0  0  0  0  0  0  0  0  0  0  0  0
   -0.2290    0.2740   13.7240 H   0  0  0  0  0  0  0  0  0  0  0  0
   -2.1780    0.8890   15.0290 H   0  0  0  0  0  0  0  0  0  0  0  0
   -2.8570   -0.4890   16.9120 H   0  0  0  0  0  0  0  0  0  0  0  0
   -1.6220   -2.5210   17.4080 H   0  0  0  0  0  0  0  0  0  0  0  0
    0.3470   -3.0980   16.1640 H   0  0  0  0  0  0  0  0  0  0  0  0
    4.2020   -5.2100   12.8980 H   0  0  0  0  0  0  0  0  0  0  0  0
    2.8040   -5.7180   13.8150 H   0  0  0  0  0  0  0  0  0  0  0  0
    3.9840   -4.6520   14.5390 H   0  0  0  0  0  0  0  0  0  0  0  0
    1.1890   -2.4030    7.9770 H   0  0  0  0  0  0  0  0  0  0  0  0
    2.2530   -1.1850    8.6390 H   0  0  0  0  0  0  0  0  0  0  0  0
    0.5850   -1.2630    9.1550 H   0  0  0  0  0  0  0  0  0  0  0  0
    3.3720   -0.4890   10.0780 H   0  0  0  0  0  0  0  0  0  0  0  0
    3.7500    1.7290   10.9210 H   0  0  0  0  0  0  0  0  0  0  0  0
  1  2  1  0  0  0  0
  2  3  2  0  0  0  0
  2 23  1  0  0  0  0
  3  4  1  0  0  0  0
  3 24  1  0  0  0  0
  4  5  1  0  0  0  0
  4 21  2  0  0  0  0
  5  6  1  0  0  0  0
  5 12  2  0  0  0  0
  6  7  2  0  0  0  0
  6 11  1  0  0  0  0
  7  8  1  0  0  0  0
  7 25  1  0  0  0  0
  8  9  2  0  0  0  0
  8 26  1  0  0  0  0
  9 10  1  0  0  0  0
  9 27  1  0  0  0  0
 10 11  2  0  0  0  0
 10 28  1  0  0  0  0
 11 29  1  0  0  0  0
 12 13  1  0  0  0  0
 13 14  1  0  0  0  0
 13 15  1  0  0  0  0
 14 30  1  0  0  0  0
 14 31  1  0  0  0  0
 14 32  1  0  0  0  0
 15 16  1  0  0  0  0
 15 20  2  0  0  0  0
 16 17  1  0  0  0  0
 16 21  1  0  0  0  0
 17 18  1  0  0  0  0
 17 19  2  0  0  0  0
 18 33  1  0  0  0  0
 18 34  1  0  0  0  0
 18 35  1  0  0  0  0
 19 20  1  0  0  0  0
 21 22  1  0  0  0  0
 22 23  2  0  0  0  0
 22 36  1  0  0  0  0
 23 37  1  0  0  0  0
M  END
$$$$
