O4
  -OEChem-06041909203D

 14 14  0     0  0  0  0  0  0999 V2000
    0.9450   -1.1980   -0.0000 Ca  0  0  0  0  0  0  0  0  0  0  0  0
    1.6450   -0.0000   -0.0000 Ca  0  0  0  0  0  0  0  0  0  0  0  0
    0.9450    1.1980    0.0000 Ca  0  0  0  0  0  0  0  0  0  0  0  0
   -0.4420    1.1940    0.0000 Ca  0  0  0  0  0  0  0  0  0  0  0  0
   -1.1540    0.0000   -0.0000 Ca  0  0  0  0  0  0  0  0  0  0  0  0
   -0.4420   -1.1940   -0.0000 Ca  0  0  0  0  0  0  0  0  0  0  0  0
    1.4820   -2.1330   -0.0000 H   0  0  0  0  0  0  0  0  0  0  0  0
    1.4820    2.1330    0.0000 H   0  0  0  0  0  0  0  0  0  0  0  0
   -1.0020    2.1100    0.0010 H   0  0  0  0  0  0  0  0  0  0  0  0
   -1.0020   -2.1100   -0.0000 H   0  0  0  0  0  0  0  0  0  0  0  0
   -2.7030    0.0000   -0.0000 C   0  3  0  0  0  0  0  0  0  0  0  0
   -3.2240   -1.1160    0.0010 O   0  5  0  0  0  0  0  0  0  0  0  0
   -3.2230    1.1160   -0.0010 O   0  5  0  0  0  0  0  0  0  0  0  0
    3.4050   -0.0000   -0.0000 Cl  0  0  0  0  0  0  0  0  0  0  0  0
  1  2  1  0  0  0  0
  1  6  1  0  0  0  0
  1  7  1  0  0  0  0
  2  3  1  0  0  0  0
  2 14  1  0  0  0  0
  3  4  1  0  0  0  0
  3  8  1  0  0  0  0
  4  5  1  0  0  0  0
  4  9  1  0  0  0  0
  5  6  1  0  0  0  0
  5 11  1  0  0  0  0
  6 10  1  0  0  0  0
 11 12  1  0  0  0  0
 11 13  1  0  0  0  0
M  CHG  3  11   1  12  -1  13  -1
M  END
$$$$
