MOL
 OpenBabel11121615033D

 17 17  0  0  0  0  0  0  0  0999 V2000
    2.4270   -1.0490   -0.0020 N   0  0  0  0  0  0  0  0  0  0  0  0
   -2.4510   -0.9090    0.0010 N   0  0  0  0  0  0  0  0  0  0  0  0
    1.2680   -0.3370    0.0000 C   0  0  0  0  0  0  0  0  0  0  0  0
   -1.1310   -0.1970   -0.0010 C   0  0  0  0  0  0  0  0  0  0  0  0
    0.0130   -0.9830   -0.0000 C   0  0  0  0  0  0  0  0  0  0  0  0
    1.2860    1.0800    0.0010 C   0  0  0  0  0  0  0  0  0  0  0  0
   -1.1400    1.1870   -0.0010 C   0  0  0  0  0  0  0  0  0  0  0  0
    0.1140    1.8170    0.0000 C   0  0  0  0  0  0  0  0  0  0  0  0
    3.3220   -0.5850    0.0070 H   0  0  0  0  0  0  0  0  0  0  0  0
    2.4350   -2.0560    0.0070 H   0  0  0  0  0  0  0  0  0  0  0  0
   -0.0430   -2.0690   -0.0010 H   0  0  0  0  0  0  0  0  0  0  0  0
    2.2430    1.5950    0.0020 H   0  0  0  0  0  0  0  0  0  0  0  0
   -2.0590    1.7650   -0.0000 H   0  0  0  0  0  0  0  0  0  0  0  0
    0.1640    2.9010    0.0010 H   0  0  0  0  0  0  0  0  0  0  0  0
   -2.5770   -1.4840    0.8440 H   0  0  0  0  0  0  0  0  0  0  0  0
   -3.2260   -0.2350   -0.0290 H   0  0  0  0  0  0  0  0  0  0  0  0
   -2.5540   -1.5300   -0.8120 H   0  0  0  0  0  0  0  0  0  0  0  0
  1  3  1  0  0  0  0
  1  9  1  0  0  0  0
  1 10  1  0  0  0  0
  2  4  1  0  0  0  0
  2 15  1  0  0  0  0
  2 16  1  0  0  0  0
  2 17  1  0  0  0  0
  3  5  2  0  0  0  0
  3  6  1  0  0  0  0
  4  5  1  0  0  0  0
  4  7  2  0  0  0  0
  5 11  1  0  0  0  0
  6  8  2  0  0  0  0
  6 12  1  0  0  0  0
  7  8  1  0  0  0  0
  7 13  1  0  0  0  0
  8 14  1  0  0  0  0
M  END
$$$$
