MOL
  -OEChem-06041909143D

 17 17  0     0  0  0  0  0  0999 V2000
    1.7560    1.3330    0.0000 N   0  0  0  0  0  0  0  0  0  0  0  0
    1.7710   -1.2850    0.0000 N   0  3  0  0  0  0  0  0  0  0  0  0
    0.4450    0.7310   -0.0000 Ca  0  0  0  0  0  0  0  0  0  0  0  0
    0.4240   -0.6690   -0.0010 Ca  0  0  0  0  0  0  0  0  0  0  0  0
   -0.7770    1.4040   -0.0000 Ca  0  0  0  0  0  0  0  0  0  0  0  0
   -0.7470   -1.4160   -0.0000 Ca  0  0  0  0  0  0  0  0  0  0  0  0
   -1.9690    0.6780    0.0000 Ca  0  0  0  0  0  0  0  0  0  0  0  0
   -1.9580   -0.7210    0.0000 Ca  0  0  0  0  0  0  0  0  0  0  0  0
    1.9060    1.9210   -0.8200 H   0  0  0  0  0  0  0  0  0  0  0  0
    1.9040    1.9220    0.8200 H   0  0  0  0  0  0  0  0  0  0  0  0
   -0.7940    2.4910   -0.0000 H   0  0  0  0  0  0  0  0  0  0  0  0
   -0.7280   -2.5020   -0.0000 H   0  0  0  0  0  0  0  0  0  0  0  0
   -2.9170    1.2070    0.0000 H   0  0  0  0  0  0  0  0  0  0  0  0
   -2.8910   -1.2740    0.0000 H   0  0  0  0  0  0  0  0  0  0  0  0
    2.3980   -0.4270    0.0020 H   0  0  0  0  0  0  0  0  0  0  0  0
    1.9620   -1.8570   -0.8310 H   0  0  0  0  0  0  0  0  0  0  0  0
    1.9610   -1.8570    0.8310 H   0  0  0  0  0  0  0  0  0  0  0  0
  1  3  1  0  0  0  0
  1  9  1  0  0  0  0
  1 10  1  0  0  0  0
  2  4  1  0  0  0  0
  2 15  1  0  0  0  0
  2 16  1  0  0  0  0
  2 17  1  0  0  0  0
  3  4  1  0  0  0  0
  3  5  1  0  0  0  0
  4  6  1  0  0  0  0
  5  7  1  0  0  0  0
  5 11  1  0  0  0  0
  6  8  1  0  0  0  0
  6 12  1  0  0  0  0
  7  8  1  0  0  0  0
  7 13  1  0  0  0  0
  8 14  1  0  0  0  0
M  CHG  1   2   1
M  END
$$$$
