MOL
  -OEChem-06041909143D

 17 17  0     0  0  0  0  0  0999 V2000
   -2.8050   -0.0010    0.0010 N   0  3  0  0  0  0  0  0  0  0  0  0
    2.8350   -0.0000    0.0000 N   0  0  0  0  0  0  0  0  0  0  0  0
   -1.3110   -0.0010   -0.0010 Ca  0  0  0  0  0  0  0  0  0  0  0  0
    1.4770    0.0010    0.0000 Ca  0  0  0  0  0  0  0  0  0  0  0  0
   -0.6350    1.2160   -0.0010 Ca  0  0  0  0  0  0  0  0  0  0  0  0
    0.7520    1.2170    0.0000 Ca  0  0  0  0  0  0  0  0  0  0  0  0
   -0.6340   -1.2190   -0.0010 Ca  0  0  0  0  0  0  0  0  0  0  0  0
    0.7510   -1.2160    0.0000 Ca  0  0  0  0  0  0  0  0  0  0  0  0
   -3.1660    0.9610   -0.0240 H   0  0  0  0  0  0  0  0  0  0  0  0
   -3.1980   -0.4470    0.8420 H   0  0  0  0  0  0  0  0  0  0  0  0
   -3.1990   -0.4900   -0.8140 H   0  0  0  0  0  0  0  0  0  0  0  0
    3.3600   -0.8610    0.0020 H   0  0  0  0  0  0  0  0  0  0  0  0
    3.3620    0.8590    0.0010 H   0  0  0  0  0  0  0  0  0  0  0  0
   -1.1700    2.1630   -0.0010 H   0  0  0  0  0  0  0  0  0  0  0  0
    1.2850    2.1630    0.0000 H   0  0  0  0  0  0  0  0  0  0  0  0
   -1.1680   -2.1660   -0.0010 H   0  0  0  0  0  0  0  0  0  0  0  0
    1.2870   -2.1610    0.0000 H   0  0  0  0  0  0  0  0  0  0  0  0
  1  3  1  0  0  0  0
  1  9  1  0  0  0  0
  1 10  1  0  0  0  0
  1 11  1  0  0  0  0
  2  4  1  0  0  0  0
  2 12  1  0  0  0  0
  2 13  1  0  0  0  0
  3  5  1  0  0  0  0
  3  7  1  0  0  0  0
  4  6  1  0  0  0  0
  4  8  1  0  0  0  0
  5  6  1  0  0  0  0
  5 14  1  0  0  0  0
  6 15  1  0  0  0  0
  7  8  1  0  0  0  0
  7 16  1  0  0  0  0
  8 17  1  0  0  0  0
M  CHG  1   1   1
M  END
$$$$
